
OS:Version,
  {9099b9af-be00-4aeb-b556-786a4d60e13b}, !- Handle
  2.9.1;                                  !- Version Identifier

OS:Facility,
  {c2a03634-83db-4f4d-9ae5-98f4ab2873b7}; !- Handle

OS:Site,
  {c4276831-b351-433c-86f6-1e8ffac8b861}, !- Handle
  Buffalo Niagara Intl Ap_NY_USA,         !- Name
  42.93,                                  !- Latitude {deg}
  -78.73,                                 !- Longitude {deg}
  -5,                                     !- Time Zone {hr}
  215,                                    !- Elevation {m}
  City;                                   !- Terrain

OS:SimulationControl,
  {4c5fa019-bf2c-4323-9fa2-07c675800def}; !- Handle

OS:Sizing:Parameters,
  {e48cc32c-706d-40ce-9868-70651bcb7165}, !- Handle
  1.25,                                   !- Heating Sizing Factor
  1.15;                                   !- Cooling Sizing Factor

OS:Timestep,
  {fda77cb6-4fbb-4b45-abde-2f4c8bafca6a}, !- Handle
  4;                                      !- Number of Timesteps per Hour

OS:ShadowCalculation,
  {cc951667-3fa5-4b33-8289-3c8da7357f1e}, !- Handle
  20,                                     !- Calculation Frequency
  15000;                                  !- Maximum Figures in Shadow Overlap Calculations

OS:HeatBalanceAlgorithm,
  {2b3f0d59-649f-41bc-a770-0662ccb5edea}, !- Handle
  ConductionTransferFunction,             !- Algorithm
  200;                                    !- Surface Temperature Upper Limit {C}

OS:RunPeriod,
  {2ac2f1b4-64bf-4f26-b888-e22486c958f8}, !- Handle
  Run Period 1,                           !- Name
  1,                                      !- Begin Month
  1,                                      !- Begin Day of Month
  12,                                     !- End Month
  31,                                     !- End Day of Month
  ,                                       !- Use Weather File Holidays and Special Days
  ,                                       !- Use Weather File Daylight Saving Period
  ,                                       !- Apply Weekend Holiday Rule
  ,                                       !- Use Weather File Rain Indicators
  ,                                       !- Use Weather File Snow Indicators
  ;                                       !- Number of Times Runperiod to be Repeated

OS:LifeCycleCost:Parameters,
  {33e83385-d1cd-4db2-be06-9fb4652f8bb6}, !- Handle
  ,                                       !- Analysis Type
  ,                                       !- Discounting Convention
  ,                                       !- Inflation Approach
  ,                                       !- Real Discount Rate
  ,                                       !- Nominal Discount Rate
  ,                                       !- Inflation
  ,                                       !- Base Date Month
  ,                                       !- Base Date Year
  ,                                       !- Service Date Month
  ,                                       !- Service Date Year
  ;                                       !- Length of Study Period in Years

OS:YearDescription,
  {5554bdc9-32ac-4d90-85ca-fa0be41d4210}, !- Handle
  2019,                                   !- Calendar Year
  ,                                       !- Day of Week for Start Day
  ;                                       !- Is Leap Year

OS:WeatherFile,
  {ecf3c498-b537-40e7-990f-bf205d560091}, !- Handle
  Buffalo Niagara Intl Ap,                !- City
  NY,                                     !- State Province Region
  USA,                                    !- Country
  TMY3,                                   !- Data Source
  725280,                                 !- WMO Number
  42.93,                                  !- Latitude {deg}
  -78.73,                                 !- Longitude {deg}
  -5,                                     !- Time Zone {hr}
  215,                                    !- Elevation {m}
  file:///C:/Gitrepos/urbanopt-example-geojson-project/weather/USA_NY_Buffalo-Greater.Buffalo.Intl.AP.725280_TMY3.epw, !- Url
  ;                                       !- Checksum

OS:Site:WaterMainsTemperature,
  {20a8511a-f9f3-418c-889a-5bca66c21670}, !- Handle
  Correlation,                            !- Calculation Method
  ,                                       !- Temperature Schedule Name
  8.96666666666667,                       !- Annual Average Outdoor Air Temperature {C}
  26.2;                                   !- Maximum Difference In Monthly Average Outdoor Air Temperatures {deltaC}

OS:SizingPeriod:DesignDay,
  {03408509-f459-4071-8022-606b62c9f052}, !- Handle
  Buffalo Niagara Intl Ap Ann Clg .4% Condns DB=>MWB 1, !- Name
  30.3,                                   !- Maximum Dry-Bulb Temperature {C}
  9.3,                                    !- Daily Dry-Bulb Temperature Range {deltaC}
  21.8,                                   !- Humidity Indicating Conditions at Maximum Dry-Bulb
  98769,                                  !- Barometric Pressure {Pa}
  5.7,                                    !- Wind Speed {m/s}
  240,                                    !- Wind Direction {deg}
  0,                                      !- Sky Clearness
  0,                                      !- Rain Indicator
  0,                                      !- Snow Indicator
  21,                                     !- Day of Month
  7,                                      !- Month
  SummerDesignDay,                        !- Day Type
  0,                                      !- Daylight Saving Time Indicator
  Wetbulb,                                !- Humidity Indicating Type
  ,                                       !- Humidity Indicating Day Schedule Name
  DefaultMultipliers,                     !- Dry-Bulb Temperature Range Modifier Type
  ,                                       !- Dry-Bulb Temperature Range Modifier Schedule Name
  ASHRAETau,                              !- Solar Model Indicator
  ,                                       !- Beam Solar Day Schedule Name
  ,                                       !- Diffuse Solar Day Schedule Name
  0.462,                                  !- ASHRAE Taub {dimensionless}
  2.001;                                  !- ASHRAE Taud {dimensionless}

OS:SizingPeriod:DesignDay,
  {0dbda8ce-1f0f-48b8-9e80-adf5081a782c}, !- Handle
  Buffalo Niagara Intl Ap Ann Clg .4% Condns WB=>MDB 1, !- Name
  27.8,                                   !- Maximum Dry-Bulb Temperature {C}
  9.3,                                    !- Daily Dry-Bulb Temperature Range {deltaC}
  23.8,                                   !- Humidity Indicating Conditions at Maximum Dry-Bulb
  98769,                                  !- Barometric Pressure {Pa}
  5.7,                                    !- Wind Speed {m/s}
  240,                                    !- Wind Direction {deg}
  0,                                      !- Sky Clearness
  0,                                      !- Rain Indicator
  0,                                      !- Snow Indicator
  21,                                     !- Day of Month
  7,                                      !- Month
  SummerDesignDay,                        !- Day Type
  0,                                      !- Daylight Saving Time Indicator
  Wetbulb,                                !- Humidity Indicating Type
  ,                                       !- Humidity Indicating Day Schedule Name
  DefaultMultipliers,                     !- Dry-Bulb Temperature Range Modifier Type
  ,                                       !- Dry-Bulb Temperature Range Modifier Schedule Name
  ASHRAETau,                              !- Solar Model Indicator
  ,                                       !- Beam Solar Day Schedule Name
  ,                                       !- Diffuse Solar Day Schedule Name
  0.462,                                  !- ASHRAE Taub {dimensionless}
  2.001;                                  !- ASHRAE Taud {dimensionless}

OS:SizingPeriod:DesignDay,
  {d5c01de5-7f6d-421f-916e-e23a6050050b}, !- Handle
  Buffalo Niagara Intl Ap Ann Htg 99.6% Condns DB 1, !- Name
  -16.3,                                  !- Maximum Dry-Bulb Temperature {C}
  0,                                      !- Daily Dry-Bulb Temperature Range {deltaC}
  -16.3,                                  !- Humidity Indicating Conditions at Maximum Dry-Bulb
  98769,                                  !- Barometric Pressure {Pa}
  5.1,                                    !- Wind Speed {m/s}
  270,                                    !- Wind Direction {deg}
  0,                                      !- Sky Clearness
  0,                                      !- Rain Indicator
  0,                                      !- Snow Indicator
  21,                                     !- Day of Month
  1,                                      !- Month
  WinterDesignDay,                        !- Day Type
  0,                                      !- Daylight Saving Time Indicator
  Wetbulb,                                !- Humidity Indicating Type
  ,                                       !- Humidity Indicating Day Schedule Name
  DefaultMultipliers,                     !- Dry-Bulb Temperature Range Modifier Type
  ,                                       !- Dry-Bulb Temperature Range Modifier Schedule Name
  ASHRAEClearSky;                         !- Solar Model Indicator

OS:ClimateZones,
  {3aeb88fc-d220-4693-b7de-d4bc7d4147d9}, !- Handle
  ,                                       !- Active Institution
  ,                                       !- Active Year
  ASHRAE,                                 !- Climate Zone Institution Name 1
  ANSI/ASHRAE Standard 169,               !- Climate Zone Document Name 1
  2006,                                   !- Climate Zone Document Year 1
  6A;                                     !- Climate Zone Value 1

OS:Building,
  {b86c0ee9-ab0c-4fe5-9288-cdd1796f11dd}, !- Handle
  DOE Ref Pre-1980|LargeOffice|SecondarySchool, !- Name
  ,                                       !- Building Sector Type
  ,                                       !- North Axis {deg}
  ,                                       !- Nominal Floor to Floor Height {m}
  ,                                       !- Space Type Name
  {1fba5984-67f4-4b58-98ea-920aa33aa673}, !- Default Construction Set Name
  ,                                       !- Default Schedule Set Name
  ,                                       !- Standards Number of Stories
  ,                                       !- Standards Number of Above Ground Stories
  ,                                       !- Standards Template
  Office;                                 !- Standards Building Type

OS:BuildingStory,
  {a10ac20b-ed3c-4e03-affd-d5d54972c2a6}, !- Handle
  Story Ground,                           !- Name
  0,                                      !- Nominal Z Coordinate {m}
  3.048,                                  !- Nominal Floor to Floor Height {m}
  ,                                       !- Default Construction Set Name
  ,                                       !- Default Schedule Set Name
  ;                                       !- Group Rendering Name

OS:Space,
  {eb61c787-6ad0-4026-808b-36169f32e37e}, !- Handle
  Office WholeBuilding - Lg Office A end_a - Story Ground, !- Name
  {63d6547f-5ec4-415f-8f49-435fe8f5a1ed}, !- Space Type Name
  ,                                       !- Default Construction Set Name
  ,                                       !- Default Schedule Set Name
  -0,                                     !- Direction of Relative North {deg}
  -27.4685516484579,                      !- X Origin {m}
  -18.3123677656386,                      !- Y Origin {m}
  0,                                      !- Z Origin {m}
  {a10ac20b-ed3c-4e03-affd-d5d54972c2a6}, !- Building Story Name
  {4c7e0994-1b80-4e82-adc3-d1df35a5ce95}; !- Thermal Zone Name

OS:Surface,
  {4b93db42-4229-400d-b2ef-823d395a6aac}, !- Handle
  Surface 1,                              !- Name
  Floor,                                  !- Surface Type
  ,                                       !- Construction Name
  {eb61c787-6ad0-4026-808b-36169f32e37e}, !- Space Name
  Ground,                                 !- Outside Boundary Condition
  ,                                       !- Outside Boundary Condition Object
  NoSun,                                  !- Sun Exposure
  NoWind,                                 !- Wind Exposure
  ,                                       !- View Factor to Ground
  ,                                       !- Number of Vertices
  1.4210854715202e-014, 7.105427357601e-015, 0, !- X,Y,Z Vertex 1 {m}
  1.4210854715202e-014, 4.57200000000001, 0, !- X,Y,Z Vertex 2 {m}
  4.57200000000001, 4.57200000000001, 0,  !- X,Y,Z Vertex 3 {m}
  4.57200000000001, 7.105427357601e-015, 0; !- X,Y,Z Vertex 4 {m}

OS:Surface,
  {1a5c9a7c-476f-419d-ae38-221ac30e3526}, !- Handle
  Surface 2,                              !- Name
  Wall,                                   !- Surface Type
  ,                                       !- Construction Name
  {eb61c787-6ad0-4026-808b-36169f32e37e}, !- Space Name
  Outdoors,                               !- Outside Boundary Condition
  ,                                       !- Outside Boundary Condition Object
  SunExposed,                             !- Sun Exposure
  WindExposed,                            !- Wind Exposure
  ,                                       !- View Factor to Ground
  ,                                       !- Number of Vertices
  1.4210854715202e-014, 4.57200000000001, 3.048, !- X,Y,Z Vertex 1 {m}
  1.4210854715202e-014, 4.57200000000001, 0, !- X,Y,Z Vertex 2 {m}
  1.4210854715202e-014, 7.105427357601e-015, 0, !- X,Y,Z Vertex 3 {m}
  1.4210854715202e-014, 7.105427357601e-015, 3.048; !- X,Y,Z Vertex 4 {m}

OS:Surface,
  {c217a19f-0f60-4f6a-a99e-396ebb09aa76}, !- Handle
  Surface 3,                              !- Name
  Wall,                                   !- Surface Type
  ,                                       !- Construction Name
  {eb61c787-6ad0-4026-808b-36169f32e37e}, !- Space Name
  Surface,                                !- Outside Boundary Condition
  {046c5900-dc07-4871-9b57-f2df94999e87}, !- Outside Boundary Condition Object
  NoSun,                                  !- Sun Exposure
  NoWind,                                 !- Wind Exposure
  ,                                       !- View Factor to Ground
  ,                                       !- Number of Vertices
  4.57200000000001, 4.57200000000001, 3.048, !- X,Y,Z Vertex 1 {m}
  4.57200000000001, 4.57200000000001, 0,  !- X,Y,Z Vertex 2 {m}
  1.4210854715202e-014, 4.57200000000001, 0, !- X,Y,Z Vertex 3 {m}
  1.4210854715202e-014, 4.57200000000001, 3.048; !- X,Y,Z Vertex 4 {m}

OS:Surface,
  {7c3bedf3-e39b-4d1b-91e1-a45f38325555}, !- Handle
  Surface 4,                              !- Name
  Wall,                                   !- Surface Type
  ,                                       !- Construction Name
  {eb61c787-6ad0-4026-808b-36169f32e37e}, !- Space Name
  Surface,                                !- Outside Boundary Condition
  {bb549a9f-038d-4384-9202-f8a4f9007dab}, !- Outside Boundary Condition Object
  NoSun,                                  !- Sun Exposure
  NoWind,                                 !- Wind Exposure
  ,                                       !- View Factor to Ground
  ,                                       !- Number of Vertices
  4.57200000000001, 7.105427357601e-015, 3.048, !- X,Y,Z Vertex 1 {m}
  4.57200000000001, 7.105427357601e-015, 0, !- X,Y,Z Vertex 2 {m}
  4.57200000000001, 4.57200000000001, 0,  !- X,Y,Z Vertex 3 {m}
  4.57200000000001, 4.57200000000001, 3.048; !- X,Y,Z Vertex 4 {m}

OS:Surface,
  {5652d9d3-67c0-4314-8da3-c98f70dd69ba}, !- Handle
  Surface 5,                              !- Name
  Wall,                                   !- Surface Type
  ,                                       !- Construction Name
  {eb61c787-6ad0-4026-808b-36169f32e37e}, !- Space Name
  Outdoors,                               !- Outside Boundary Condition
  ,                                       !- Outside Boundary Condition Object
  SunExposed,                             !- Sun Exposure
  WindExposed,                            !- Wind Exposure
  ,                                       !- View Factor to Ground
  ,                                       !- Number of Vertices
  1.4210854715202e-014, 7.105427357601e-015, 3.048, !- X,Y,Z Vertex 1 {m}
  1.4210854715202e-014, 7.105427357601e-015, 0, !- X,Y,Z Vertex 2 {m}
  4.57200000000001, 7.105427357601e-015, 0, !- X,Y,Z Vertex 3 {m}
  4.57200000000001, 7.105427357601e-015, 3.048; !- X,Y,Z Vertex 4 {m}

OS:Surface,
  {ee2a1514-467e-45cc-9853-f0e35427daf8}, !- Handle
  Surface 6,                              !- Name
  RoofCeiling,                            !- Surface Type
  ,                                       !- Construction Name
  {eb61c787-6ad0-4026-808b-36169f32e37e}, !- Space Name
  Surface,                                !- Outside Boundary Condition
  {9ec7f213-8cd3-4bed-b3b9-e70a5d1f25ca}, !- Outside Boundary Condition Object
  NoSun,                                  !- Sun Exposure
  NoWind,                                 !- Wind Exposure
  ,                                       !- View Factor to Ground
  ,                                       !- Number of Vertices
  4.57200000000001, 7.105427357601e-015, 3.048, !- X,Y,Z Vertex 1 {m}
  4.57200000000001, 4.57200000000001, 3.048, !- X,Y,Z Vertex 2 {m}
  1.4210854715202e-014, 4.57200000000001, 3.048, !- X,Y,Z Vertex 3 {m}
  1.4210854715202e-014, 7.105427357601e-015, 3.048; !- X,Y,Z Vertex 4 {m}

OS:ThermalZone,
  {4c7e0994-1b80-4e82-adc3-d1df35a5ce95}, !- Handle
  Zone Office WholeBuilding - Lg Office A end_a - Story Ground, !- Name
  1,                                      !- Multiplier
  ,                                       !- Ceiling Height {m}
  ,                                       !- Volume {m3}
  ,                                       !- Floor Area {m2}
  ,                                       !- Zone Inside Convection Algorithm
  ,                                       !- Zone Outside Convection Algorithm
  ,                                       !- Zone Conditioning Equipment List Name
  {79843906-fc78-44e7-81c9-fecc9b6955d7}, !- Zone Air Inlet Port List
  {df7fd262-c5db-444b-9282-f1824012b40d}, !- Zone Air Exhaust Port List
  {037c8cc1-21a8-43bd-877f-30e2313f838c}, !- Zone Air Node Name
  {de6f8bb2-9f61-4b61-89e8-c5717cb176a8}, !- Zone Return Air Port List
  ,                                       !- Primary Daylighting Control Name
  ,                                       !- Fraction of Zone Controlled by Primary Daylighting Control
  ,                                       !- Secondary Daylighting Control Name
  ,                                       !- Fraction of Zone Controlled by Secondary Daylighting Control
  ,                                       !- Illuminance Map Name
  ,                                       !- Group Rendering Name
  {a5b43a72-c863-464d-a5a7-f4d1d1cd04d5}, !- Thermostat Name
  No;                                     !- Use Ideal Air Loads

OS:Node,
  {c5af0dd1-764c-441c-b46c-913648084a8d}, !- Handle
  Node 1,                                 !- Name
  {037c8cc1-21a8-43bd-877f-30e2313f838c}, !- Inlet Port
  ;                                       !- Outlet Port

OS:Connection,
  {037c8cc1-21a8-43bd-877f-30e2313f838c}, !- Handle
  {b1c779d6-1112-480c-ab55-46b0714eb85c}, !- Name
  {4c7e0994-1b80-4e82-adc3-d1df35a5ce95}, !- Source Object
  11,                                     !- Outlet Port
  {c5af0dd1-764c-441c-b46c-913648084a8d}, !- Target Object
  2;                                      !- Inlet Port

OS:PortList,
  {79843906-fc78-44e7-81c9-fecc9b6955d7}, !- Handle
  {fbea40fd-bcd2-4b6e-a0a1-5e2958558dd1}, !- Name
  {4c7e0994-1b80-4e82-adc3-d1df35a5ce95}; !- HVAC Component

OS:PortList,
  {df7fd262-c5db-444b-9282-f1824012b40d}, !- Handle
  {bad88fc1-a105-40f9-8467-aa42de660354}, !- Name
  {4c7e0994-1b80-4e82-adc3-d1df35a5ce95}; !- HVAC Component

OS:PortList,
  {de6f8bb2-9f61-4b61-89e8-c5717cb176a8}, !- Handle
  {574c3127-90ed-4485-86e4-0ba70e7c0772}, !- Name
  {4c7e0994-1b80-4e82-adc3-d1df35a5ce95}; !- HVAC Component

OS:Sizing:Zone,
  {9926dca3-b589-4375-90fc-9fa1ee2aebd4}, !- Handle
  {4c7e0994-1b80-4e82-adc3-d1df35a5ce95}, !- Zone or ZoneList Name
  SupplyAirTemperature,                   !- Zone Cooling Design Supply Air Temperature Input Method
  14,                                     !- Zone Cooling Design Supply Air Temperature {C}
  11.11,                                  !- Zone Cooling Design Supply Air Temperature Difference {deltaC}
  SupplyAirTemperature,                   !- Zone Heating Design Supply Air Temperature Input Method
  40,                                     !- Zone Heating Design Supply Air Temperature {C}
  11.11,                                  !- Zone Heating Design Supply Air Temperature Difference {deltaC}
  0.0085,                                 !- Zone Cooling Design Supply Air Humidity Ratio {kg-H2O/kg-air}
  0.008,                                  !- Zone Heating Design Supply Air Humidity Ratio {kg-H2O/kg-air}
  ,                                       !- Zone Heating Sizing Factor
  ,                                       !- Zone Cooling Sizing Factor
  DesignDay,                              !- Cooling Design Air Flow Method
  ,                                       !- Cooling Design Air Flow Rate {m3/s}
  ,                                       !- Cooling Minimum Air Flow per Zone Floor Area {m3/s-m2}
  ,                                       !- Cooling Minimum Air Flow {m3/s}
  ,                                       !- Cooling Minimum Air Flow Fraction
  DesignDay,                              !- Heating Design Air Flow Method
  ,                                       !- Heating Design Air Flow Rate {m3/s}
  ,                                       !- Heating Maximum Air Flow per Zone Floor Area {m3/s-m2}
  ,                                       !- Heating Maximum Air Flow {m3/s}
  ,                                       !- Heating Maximum Air Flow Fraction
  ,                                       !- Design Zone Air Distribution Effectiveness in Cooling Mode
  ,                                       !- Design Zone Air Distribution Effectiveness in Heating Mode
  No,                                     !- Account for Dedicated Outdoor Air System
  NeutralSupplyAir,                       !- Dedicated Outdoor Air System Control Strategy
  autosize,                               !- Dedicated Outdoor Air Low Setpoint Temperature for Design {C}
  autosize;                               !- Dedicated Outdoor Air High Setpoint Temperature for Design {C}

OS:ZoneHVAC:EquipmentList,
  {fdb576b1-b85e-4245-9665-75d85e5567ff}, !- Handle
  Zone HVAC Equipment List 1,             !- Name
  {4c7e0994-1b80-4e82-adc3-d1df35a5ce95}; !- Thermal Zone

OS:Space,
  {2f86fd72-c226-48af-af11-0387f28c5925}, !- Handle
  Office WholeBuilding - Lg Office B end_a - Story Ground, !- Name
  {63d6547f-5ec4-415f-8f49-435fe8f5a1ed}, !- Space Type Name
  ,                                       !- Default Construction Set Name
  ,                                       !- Default Schedule Set Name
  -0,                                     !- Direction of Relative North {deg}
  -27.4685516484579,                      !- X Origin {m}
  -13.7403677656386,                      !- Y Origin {m}
  0,                                      !- Z Origin {m}
  {a10ac20b-ed3c-4e03-affd-d5d54972c2a6}, !- Building Story Name
  {f3f63dc0-80e7-458f-97b0-9dc1b4eaad36}; !- Thermal Zone Name

OS:Surface,
  {23813d20-647c-487e-99dd-094fea17a04b}, !- Handle
  Surface 7,                              !- Name
  Floor,                                  !- Surface Type
  ,                                       !- Construction Name
  {2f86fd72-c226-48af-af11-0387f28c5925}, !- Space Name
  Ground,                                 !- Outside Boundary Condition
  ,                                       !- Outside Boundary Condition Object
  NoSun,                                  !- Sun Exposure
  NoWind,                                 !- Wind Exposure
  ,                                       !- View Factor to Ground
  ,                                       !- Number of Vertices
  1.4210854715202e-014, 8.88178419700125e-015, 0, !- X,Y,Z Vertex 1 {m}
  1.4210854715202e-014, 27.4807355312772, 0, !- X,Y,Z Vertex 2 {m}
  4.57200000000001, 27.4807355312772, 0,  !- X,Y,Z Vertex 3 {m}
  4.57200000000001, 8.88178419700125e-015, 0; !- X,Y,Z Vertex 4 {m}

OS:Surface,
  {793d9419-1645-45e1-bb15-7da4b99f12b8}, !- Handle
  Surface 8,                              !- Name
  Wall,                                   !- Surface Type
  ,                                       !- Construction Name
  {2f86fd72-c226-48af-af11-0387f28c5925}, !- Space Name
  Outdoors,                               !- Outside Boundary Condition
  ,                                       !- Outside Boundary Condition Object
  SunExposed,                             !- Sun Exposure
  WindExposed,                            !- Wind Exposure
  ,                                       !- View Factor to Ground
  ,                                       !- Number of Vertices
  1.4210854715202e-014, 27.4807355312772, 3.048, !- X,Y,Z Vertex 1 {m}
  1.4210854715202e-014, 27.4807355312772, 0, !- X,Y,Z Vertex 2 {m}
  1.4210854715202e-014, 8.88178419700125e-015, 0, !- X,Y,Z Vertex 3 {m}
  1.4210854715202e-014, 8.88178419700125e-015, 3.048; !- X,Y,Z Vertex 4 {m}

OS:Surface,
  {6dd007c7-b426-400f-bdee-3d79638982fb}, !- Handle
  Surface 9,                              !- Name
  Wall,                                   !- Surface Type
  ,                                       !- Construction Name
  {2f86fd72-c226-48af-af11-0387f28c5925}, !- Space Name
  Surface,                                !- Outside Boundary Condition
  {c1715239-a3d2-466b-b837-af4df38a93b9}, !- Outside Boundary Condition Object
  NoSun,                                  !- Sun Exposure
  NoWind,                                 !- Wind Exposure
  ,                                       !- View Factor to Ground
  ,                                       !- Number of Vertices
  4.57200000000001, 27.4807355312772, 3.048, !- X,Y,Z Vertex 1 {m}
  4.57200000000001, 27.4807355312772, 0,  !- X,Y,Z Vertex 2 {m}
  1.4210854715202e-014, 27.4807355312772, 0, !- X,Y,Z Vertex 3 {m}
  1.4210854715202e-014, 27.4807355312772, 3.048; !- X,Y,Z Vertex 4 {m}

OS:Surface,
  {028b01fe-0f55-43d9-b0c5-9dcecba21c21}, !- Handle
  Surface 10,                             !- Name
  Wall,                                   !- Surface Type
  ,                                       !- Construction Name
  {2f86fd72-c226-48af-af11-0387f28c5925}, !- Space Name
  Surface,                                !- Outside Boundary Condition
  {1c064d76-2b2a-46a0-9797-123412d29e6e}, !- Outside Boundary Condition Object
  NoSun,                                  !- Sun Exposure
  NoWind,                                 !- Wind Exposure
  ,                                       !- View Factor to Ground
  ,                                       !- Number of Vertices
  4.57200000000001, 8.88178419700125e-015, 3.048, !- X,Y,Z Vertex 1 {m}
  4.57200000000001, 8.88178419700125e-015, 0, !- X,Y,Z Vertex 2 {m}
  4.57200000000001, 27.4807355312772, 0,  !- X,Y,Z Vertex 3 {m}
  4.57200000000001, 27.4807355312772, 3.048; !- X,Y,Z Vertex 4 {m}

OS:Surface,
  {046c5900-dc07-4871-9b57-f2df94999e87}, !- Handle
  Surface 11,                             !- Name
  Wall,                                   !- Surface Type
  ,                                       !- Construction Name
  {2f86fd72-c226-48af-af11-0387f28c5925}, !- Space Name
  Surface,                                !- Outside Boundary Condition
  {c217a19f-0f60-4f6a-a99e-396ebb09aa76}, !- Outside Boundary Condition Object
  NoSun,                                  !- Sun Exposure
  NoWind,                                 !- Wind Exposure
  ,                                       !- View Factor to Ground
  ,                                       !- Number of Vertices
  1.4210854715202e-014, 8.88178419700125e-015, 3.048, !- X,Y,Z Vertex 1 {m}
  1.4210854715202e-014, 8.88178419700125e-015, 0, !- X,Y,Z Vertex 2 {m}
  4.57200000000001, 8.88178419700125e-015, 0, !- X,Y,Z Vertex 3 {m}
  4.57200000000001, 8.88178419700125e-015, 3.048; !- X,Y,Z Vertex 4 {m}

OS:Surface,
  {624e1ee6-7a19-4661-85c2-fd3944d575b8}, !- Handle
  Surface 12,                             !- Name
  RoofCeiling,                            !- Surface Type
  ,                                       !- Construction Name
  {2f86fd72-c226-48af-af11-0387f28c5925}, !- Space Name
  Surface,                                !- Outside Boundary Condition
  {3b27f2e8-7313-4487-84db-c361f36c218d}, !- Outside Boundary Condition Object
  NoSun,                                  !- Sun Exposure
  NoWind,                                 !- Wind Exposure
  ,                                       !- View Factor to Ground
  ,                                       !- Number of Vertices
  4.57200000000001, 8.88178419700125e-015, 3.048, !- X,Y,Z Vertex 1 {m}
  4.57200000000001, 27.4807355312772, 3.048, !- X,Y,Z Vertex 2 {m}
  1.4210854715202e-014, 27.4807355312772, 3.048, !- X,Y,Z Vertex 3 {m}
  1.4210854715202e-014, 8.88178419700125e-015, 3.048; !- X,Y,Z Vertex 4 {m}

OS:ThermalZone,
  {f3f63dc0-80e7-458f-97b0-9dc1b4eaad36}, !- Handle
  Zone Office WholeBuilding - Lg Office B end_a - Story Ground, !- Name
  1,                                      !- Multiplier
  ,                                       !- Ceiling Height {m}
  ,                                       !- Volume {m3}
  ,                                       !- Floor Area {m2}